/*--------------------------------*- C++ -*----------------------------------*\
| =========                 |                                                 |
| \\      /  F ield         | OpenFOAM: The Open Source CFD Toolbox           |
|  \\    /   O peration     | Version:  plus                                  |
|   \\  /    A nd           | Web:      www.OpenFOAM.com                      |
|    \\/     M anipulation  |                                                 |
\*---------------------------------------------------------------------------*/
FoamFile
{
    version     2.0;
    format      ascii;
    class       dictionary;
    location    "system";
    object      controlDict;
}
// * * * * * * * * * * * * * * * * * * * * * * * * * * * * * * * * * * * * * //

application     icoUncoupledKinematicParcelFoam;

startFrom       startTime;

startTime       0;

stopAt          endTime;

endTime         0.0005;

deltaT          5e-5;

writeControl    runTime;

writeInterval   0.0001;

purgeWrite      0;

writeFormat     ascii;

writePrecision  6;

writeCompression uncompressed;

timeFormat      general;

timePrecision   6;

runTimeModifiable yes;

// ************************************************************************* //

functions
{
    adiosData
    {
        // Write solution (Eulerian, Lagrangian) into an ADIOS container
        type                adiosWrite;
        #include            "adiosDict";
        functionObjectLibs  ("libIOadiosWrite.so");

        ignore
        {
            // clouds to ignore
            clouds      ( "referr.*" );
        )

        // Parameters for the selected write method
        writeOptions    "verbose=4";

        // Write interval (in number of iterations)
        writeInterval       5;

        // Restart with output time not set (do not use if no restart needed)
        // e.g. 1.725 will look for adiosData/1.725.bp for checkpoint data
//        restartTime         0.0005;
    }
}

// ************************************************************************* //
